# generated using pymatgen
data_NaSrPO4
_symmetry_space_group_name_H-M   Pnma
_cell_length_a   7.11679300
_cell_length_b   5.50831100
_cell_length_c   9.77443900
_cell_angle_alpha   90.00000000
_cell_angle_beta   90.00000000
_cell_angle_gamma   90.00000000
_symmetry_Int_Tables_number   62
_chemical_formula_structural   NaSrPO4
_chemical_formula_sum   'Na4 Sr4 P4 O16'
_cell_volume   383.17276006
_cell_formula_units_Z   4
loop_
 _symmetry_equiv_pos_site_id
 _symmetry_equiv_pos_as_xyz
  1  'x, y, z'
  2  '-x, -y, -z'
  3  '-x+1/2, -y, z+1/2'
  4  'x+1/2, y, -z+1/2'
  5  'x+1/2, -y+1/2, -z+1/2'
  6  '-x+1/2, y+1/2, z+1/2'
  7  '-x, y+1/2, -z'
  8  'x, -y+1/2, z'
loop_
 _atom_type_symbol
 _atom_type_oxidation_number
  Na+  1.0
  Sr2+  2.0
  P5+  5.0
  O2-  -2.0
loop_
 _atom_site_type_symbol
 _atom_site_label
 _atom_site_symmetry_multiplicity
 _atom_site_fract_x
 _atom_site_fract_y
 _atom_site_fract_z
 _atom_site_occupancy
  Na+  Na0  4  0.17456600  0.25000000  0.57111400  1
  Sr2+  Sr1  4  0.00907800  0.75000000  0.80153700  1
  P5+  P2  4  0.23039400  0.25000000  0.92086800  1
  O2-  O3  8  0.19645300  0.51835400  0.34762500  1
  O2-  O4  4  0.01156400  0.25000000  0.92238400  1
  O2-  O5  4  0.19491900  0.75000000  0.57170500  1
